Version 4
SHEET 1 2432 2520
WIRE 1360 208 512 208
WIRE 1360 240 688 240
WIRE 1360 272 848 272
WIRE 512 464 512 208
WIRE 1360 464 512 464
WIRE 688 496 688 240
WIRE 1360 496 688 496
WIRE 1360 528 928 528
WIRE 2144 624 2080 624
WIRE 2192 624 2144 624
WIRE 512 704 512 464
WIRE 1360 704 512 704
WIRE 1360 736 752 736
WIRE 2144 752 2080 752
WIRE 2192 752 2144 752
WIRE 848 768 848 272
WIRE 1360 768 848 768
WIRE 2144 880 2080 880
WIRE 2192 880 2144 880
WIRE 512 944 512 704
WIRE 1360 944 512 944
WIRE 752 976 752 736
WIRE 1360 976 752 976
WIRE 928 1008 928 528
WIRE 1360 1008 928 1008
WIRE 2144 1008 2080 1008
WIRE 2192 1008 2144 1008
WIRE 2144 1136 2080 1136
WIRE 2192 1136 2144 1136
WIRE 1360 1184 576 1184
WIRE 688 1216 688 496
WIRE 1360 1216 688 1216
WIRE 848 1248 848 768
WIRE 1360 1248 848 1248
WIRE 2144 1264 2080 1264
WIRE 2192 1264 2144 1264
WIRE 2144 1392 2080 1392
WIRE 2192 1392 2144 1392
WIRE 576 1440 576 1184
WIRE 1360 1440 576 1440
WIRE 688 1472 688 1216
WIRE 1360 1472 688 1472
WIRE 928 1504 928 1008
WIRE 1360 1504 928 1504
WIRE 2144 1536 2080 1536
WIRE 2192 1536 2144 1536
WIRE 576 1680 576 1440
WIRE 1360 1680 576 1680
WIRE 752 1712 752 976
WIRE 1360 1712 752 1712
WIRE 848 1744 848 1248
WIRE 1360 1744 848 1744
WIRE 576 1952 576 1680
WIRE 1360 1952 576 1952
WIRE 752 1984 752 1712
WIRE 1360 1984 752 1984
WIRE 928 2016 928 1504
WIRE 1360 2016 928 2016
WIRE 752 2096 752 1984
WIRE 848 2112 848 1744
WIRE 928 2112 928 2080
WIRE 928 2112 848 2112
WIRE 848 2144 848 2112
WIRE 688 2208 688 1472
WIRE 752 2208 752 2160
WIRE 752 2208 688 2208
WIRE 576 2224 576 1952
WIRE 688 2256 688 2208
WIRE 512 2320 512 944
WIRE 576 2320 576 2288
WIRE 576 2320 512 2320
WIRE 512 2368 512 2320
FLAG 512 2448 0
FLAG 688 2336 0
FLAG 848 2224 0
FLAG 1936 1616 0
FLAG 1936 1536 VDD
FLAG 1488 1856 VDD
FLAG 1488 1584 VDD
FLAG 1488 1344 VDD
FLAG 1488 1088 VDD
FLAG 1488 848 VDD
FLAG 1488 608 VDD
FLAG 1488 368 VDD
FLAG 1488 112 VDD
FLAG 1744 240 y7
FLAG 1744 496 y6
FLAG 1744 736 y5
FLAG 1744 976 y4
FLAG 1744 1216 y3
FLAG 1744 1472 y2
FLAG 1744 1712 y1
FLAG 1744 1984 y0
FLAG 2080 704 0
FLAG 2080 832 0
FLAG 2080 960 0
FLAG 2080 1088 0
FLAG 2080 1216 0
FLAG 2080 1344 0
FLAG 2080 1472 0
FLAG 2080 1616 0
FLAG 2192 1600 0
FLAG 2192 1456 0
FLAG 2192 1328 0
FLAG 2192 1200 0
FLAG 2192 1072 0
FLAG 2192 944 0
FLAG 2192 816 0
FLAG 2192 688 0
FLAG 2144 1536 y0
FLAG 2144 1392 y1
FLAG 2144 1264 y2
FLAG 2144 1136 y3
FLAG 2144 1008 y4
FLAG 2144 880 y5
FLAG 2144 752 y6
FLAG 2144 624 y7
FLAG 592 2288 0
FLAG 768 2160 0
FLAG 944 2080 0
SYMBOL nand3 1520 240 R0
SYMATTR InstName X1
SYMBOL nand3 1520 496 R0
SYMATTR InstName X2
SYMBOL nand3 1520 736 R0
SYMATTR InstName X3
SYMBOL nand3 1520 976 R0
SYMATTR InstName X4
SYMBOL nand3 1520 1216 R0
SYMATTR InstName X5
SYMBOL nand3 1520 1472 R0
SYMATTR InstName X6
SYMBOL nand3 1520 1712 R0
SYMATTR InstName X7
SYMBOL nand3 1520 1984 R0
SYMATTR InstName X8
SYMBOL voltage 512 2352 R0
WINDOW 123 0 0 Left 0
WINDOW 39 0 0 Left 0
SYMATTR InstName V1
SYMATTR Value PULSE(0 1 4n 10p 10p 4n 6n)
SYMBOL voltage 688 2240 R0
WINDOW 123 0 0 Left 0
WINDOW 39 0 0 Left 0
SYMATTR InstName V2
SYMATTR Value PULSE(0 1 2n 10p 10p 2n 4n)
SYMBOL voltage 848 2128 R0
WINDOW 123 0 0 Left 0
WINDOW 39 0 0 Left 0
SYMATTR InstName V3
SYMATTR Value PULSE(0 1 1n 10p 10p 1n 2n)
SYMBOL Digital\\inv 512 2288 R270
SYMATTR InstName A1
SYMBOL Digital\\inv 688 2160 R270
SYMATTR InstName A2
SYMBOL Digital\\inv 864 2080 R270
SYMATTR InstName A3
SYMBOL voltage 1936 1520 R0
WINDOW 123 0 0 Left 0
WINDOW 39 0 0 Left 0
SYMATTR InstName V4
SYMATTR Value 1
SYMBOL res 2064 1520 R0
SYMATTR InstName R1
SYMATTR Value 100k
SYMBOL res 2064 1376 R0
SYMATTR InstName R2
SYMATTR Value 100k
SYMBOL res 2064 1248 R0
SYMATTR InstName R3
SYMATTR Value 100k
SYMBOL res 2064 1120 R0
SYMATTR InstName R4
SYMATTR Value 100k
SYMBOL res 2064 992 R0
SYMATTR InstName R5
SYMATTR Value 100k
SYMBOL res 2064 864 R0
SYMATTR InstName R6
SYMATTR Value 100k
SYMBOL res 2064 736 R0
SYMATTR InstName R7
SYMATTR Value 100k
SYMBOL res 2064 608 R0
SYMATTR InstName R8
SYMATTR Value 100k
SYMBOL cap 2176 1536 R0
SYMATTR InstName C1
SYMATTR Value 100f
SYMBOL cap 2176 1392 R0
SYMATTR InstName C2
SYMATTR Value 100f
SYMBOL cap 2176 1264 R0
SYMATTR InstName C3
SYMATTR Value 100f
SYMBOL cap 2176 1136 R0
SYMATTR InstName C4
SYMATTR Value 100f
SYMBOL cap 2176 1008 R0
SYMATTR InstName C5
SYMATTR Value 100f
SYMBOL cap 2176 880 R0
SYMATTR InstName C6
SYMATTR Value 100f
SYMBOL cap 2176 752 R0
SYMATTR InstName C7
SYMATTR Value 100f
SYMBOL cap 2176 624 R0
SYMATTR InstName C8
SYMATTR Value 100f
TEXT 512 2504 Left 2 ;A
TEXT 688 2384 Left 2 ;B
TEXT 848 2280 Left 2 ;C
TEXT 1808 1984 Left 2 ;Y0
TEXT 1808 240 Left 2 ;Y7
TEXT 496 -152 Left 2 !.tran 0 8n 0 1p
TEXT 504 -120 Left 2 !.include 90nm_bulk.txt
