Version 4
SHEET 1 1272 680
WIRE -160 96 -160 64
WIRE 304 144 240 144
WIRE -160 160 -160 96
WIRE 304 176 192 176
WIRE -160 192 -288 192
WIRE 192 192 192 176
WIRE 192 208 192 192
WIRE 304 208 192 208
WIRE -160 224 -288 224
WIRE 816 272 752 272
WIRE 656 304 656 176
WIRE 816 304 656 304
WIRE 1168 304 1168 256
FLAG -160 64 V_POS
IOPIN -160 64 In
FLAG -288 192 A_IN
IOPIN -288 192 In
FLAG -288 224 B_IN
IOPIN -288 224 In
FLAG 816 336 C_IN
IOPIN 816 336 In
FLAG 1168 256 OUT
IOPIN 1168 256 Out
FLAG -160 96 V_P
FLAG 240 144 V_P
FLAG 752 272 V_P
SYMBOL nand -16 192 R0
SYMATTR InstName X1
SYMBOL nand 960 304 R0
SYMATTR InstName X2
SYMBOL nand 448 176 R0
SYMATTR InstName X3
